12
regular icosahedron
H      -0.874750355132949     -1.415375806276152     -0.000000000000000
H      -1.415375806276152     -0.000000000000000     -0.874750355132949
H       0.000000000000000      0.874750355132949      1.415375806276152
H      -1.415375806276152     -0.000000000000000      0.874750355132949
H       1.415375806276152      0.000000000000000      0.874750355132949
H       0.000000000000000      0.874750355132949     -1.415375806276152
H       0.000000000000000     -0.874750355132949      1.415375806276152
H       0.000000000000000     -0.874750355132949     -1.415375806276152
H       1.415375806276152      0.000000000000000     -0.874750355132949
H       0.874750355132949      1.415375806276152      0.000000000000000
H       0.874750355132949     -1.415375806276152     -0.000000000000000
H      -0.874750355132949      1.415375806276152      0.000000000000000
